<routes>
        <vType id="typeA" type="passenger" length="5" accel="3.5" decel="5" sigma="0.0" maxSpeed="50" color="yellow"/>
        <vType id="typeB" type="passenger" length="5" accel="3.5" decel="5" sigma="0.0" maxSpeed="50" color="blue"/>

        <route id="right" edges="E1 E2" />
    <vehicle id="B_1" type="typeB" route="right" depart="0" departLane="0" departSpeed="random"/>
    <vehicle id="B_2" type="typeB" route="right" depart="4" departLane="0" departSpeed="random"/>
    <vehicle id="A_1" type="typeA" route="right" depart="6" departLane="1" departSpeed="random"/>
    <vehicle id="B_3" type="typeB" route="right" depart="9" departLane="0" departSpeed="random"/>
    <vehicle id="B_4" type="typeB" route="right" depart="33" departLane="0" departSpeed="random"/>
    <vehicle id="A_2" type="typeA" route="right" depart="50" departLane="1" departSpeed="random"/>
    <vehicle id="A_3" type="typeA" route="right" depart="62" departLane="1" departSpeed="random"/>
    <vehicle id="A_4" type="typeA" route="right" depart="63" departLane="1" departSpeed="random"/>
    <vehicle id="B_5" type="typeB" route="right" depart="134" departLane="0" departSpeed="random"/>
    <vehicle id="A_5" type="typeA" route="right" depart="145" departLane="1" departSpeed="random"/>
    <vehicle id="B_6" type="typeB" route="right" depart="148" departLane="0" departSpeed="random"/>
    <vehicle id="A_6" type="typeA" route="right" depart="162" departLane="1" departSpeed="random"/>
    <vehicle id="A_7" type="typeA" route="right" depart="171" departLane="1" departSpeed="random"/>
    <vehicle id="A_8" type="typeA" route="right" depart="184" departLane="1" departSpeed="random"/>
    <vehicle id="A_9" type="typeA" route="right" depart="197" departLane="1" departSpeed="random"/>
    <vehicle id="B_7" type="typeB" route="right" depart="207" departLane="0" departSpeed="random"/>
    <vehicle id="B_8" type="typeB" route="right" depart="213" departLane="0" departSpeed="random"/>
    <vehicle id="B_9" type="typeB" route="right" depart="240" departLane="0" departSpeed="random"/>
    <vehicle id="B_10" type="typeB" route="right" depart="246" departLane="0" departSpeed="random"/>
    <vehicle id="B_11" type="typeB" route="right" depart="250" departLane="0" departSpeed="random"/>
    <vehicle id="A_10" type="typeA" route="right" depart="252" departLane="1" departSpeed="random"/>
    <vehicle id="A_11" type="typeA" route="right" depart="259" departLane="1" departSpeed="random"/>
    <vehicle id="A_12" type="typeA" route="right" depart="264" departLane="1" departSpeed="random"/>
    <vehicle id="B_12" type="typeB" route="right" depart="271" departLane="0" departSpeed="random"/>
    <vehicle id="B_13" type="typeB" route="right" depart="294" departLane="0" departSpeed="random"/>
    <vehicle id="A_13" type="typeA" route="right" depart="299" departLane="1" departSpeed="random"/>
    <vehicle id="B_14" type="typeB" route="right" depart="318" departLane="0" departSpeed="random"/>
    <vehicle id="A_14" type="typeA" route="right" depart="342" departLane="1" departSpeed="random"/>
    <vehicle id="A_15" type="typeA" route="right" depart="441" departLane="1" departSpeed="random"/>
    <vehicle id="A_16" type="typeA" route="right" depart="478" departLane="1" departSpeed="random"/>
    <vehicle id="A_17" type="typeA" route="right" depart="483" departLane="1" departSpeed="random"/>
    <vehicle id="B_15" type="typeB" route="right" depart="497" departLane="0" departSpeed="random"/>
    <vehicle id="B_16" type="typeB" route="right" depart="506" departLane="0" departSpeed="random"/>
    <vehicle id="A_18" type="typeA" route="right" depart="513" departLane="1" departSpeed="random"/>
    <vehicle id="B_17" type="typeB" route="right" depart="516" departLane="0" departSpeed="random"/>
    <vehicle id="A_19" type="typeA" route="right" depart="517" departLane="1" departSpeed="random"/>
    <vehicle id="B_18" type="typeB" route="right" depart="562" departLane="0" departSpeed="random"/>
    <vehicle id="B_19" type="typeB" route="right" depart="566" departLane="0" departSpeed="random"/>
    <vehicle id="B_20" type="typeB" route="right" depart="569" departLane="0" departSpeed="random"/>
    <vehicle id="A_20" type="typeA" route="right" depart="584" departLane="1" departSpeed="random"/>
    <vehicle id="A_21" type="typeA" route="right" depart="587" departLane="1" departSpeed="random"/>
    <vehicle id="B_21" type="typeB" route="right" depart="592" departLane="0" departSpeed="random"/>
    <vehicle id="B_22" type="typeB" route="right" depart="596" departLane="0" departSpeed="random"/>
    <vehicle id="B_23" type="typeB" route="right" depart="686" departLane="0" departSpeed="random"/>
    <vehicle id="B_24" type="typeB" route="right" depart="689" departLane="0" departSpeed="random"/>
    <vehicle id="B_25" type="typeB" route="right" depart="695" departLane="0" departSpeed="random"/>
    <vehicle id="A_22" type="typeA" route="right" depart="704" departLane="1" departSpeed="random"/>
    <vehicle id="B_26" type="typeB" route="right" depart="714" departLane="0" departSpeed="random"/>
    <vehicle id="A_23" type="typeA" route="right" depart="778" departLane="1" departSpeed="random"/>
    <vehicle id="A_24" type="typeA" route="right" depart="804" departLane="1" departSpeed="random"/>
    <vehicle id="B_27" type="typeB" route="right" depart="828" departLane="0" departSpeed="random"/>
    <vehicle id="B_28" type="typeB" route="right" depart="860" departLane="0" departSpeed="random"/>
    <vehicle id="B_29" type="typeB" route="right" depart="867" departLane="0" departSpeed="random"/>
    <vehicle id="A_25" type="typeA" route="right" depart="869" departLane="1" departSpeed="random"/>
    <vehicle id="B_30" type="typeB" route="right" depart="903" departLane="0" departSpeed="random"/>
    <vehicle id="A_26" type="typeA" route="right" depart="918" departLane="1" departSpeed="random"/>
    <vehicle id="A_27" type="typeA" route="right" depart="937" departLane="1" departSpeed="random"/>
    <vehicle id="B_31" type="typeB" route="right" depart="969" departLane="0" departSpeed="random"/>
    <vehicle id="B_32" type="typeB" route="right" depart="980" departLane="0" departSpeed="random"/>
    <vehicle id="A_28" type="typeA" route="right" depart="981" departLane="1" departSpeed="random"/>
    <vehicle id="A_29" type="typeA" route="right" depart="989" departLane="1" departSpeed="random"/>
    <vehicle id="A_30" type="typeA" route="right" depart="1025" departLane="1" departSpeed="random"/>
    <vehicle id="A_31" type="typeA" route="right" depart="1056" departLane="1" departSpeed="random"/>
    <vehicle id="A_32" type="typeA" route="right" depart="1060" departLane="1" departSpeed="random"/>
    <vehicle id="A_33" type="typeA" route="right" depart="1061" departLane="1" departSpeed="random"/>
    <vehicle id="A_34" type="typeA" route="right" depart="1063" departLane="1" departSpeed="random"/>
    <vehicle id="B_33" type="typeB" route="right" depart="1076" departLane="0" departSpeed="random"/>
    <vehicle id="A_35" type="typeA" route="right" depart="1086" departLane="1" departSpeed="random"/>
    <vehicle id="B_34" type="typeB" route="right" depart="1100" departLane="0" departSpeed="random"/>
    <vehicle id="B_35" type="typeB" route="right" depart="1110" departLane="0" departSpeed="random"/>
    <vehicle id="A_36" type="typeA" route="right" depart="1115" departLane="1" departSpeed="random"/>
    <vehicle id="A_37" type="typeA" route="right" depart="1165" departLane="1" departSpeed="random"/>
    <vehicle id="A_38" type="typeA" route="right" depart="1171" departLane="1" departSpeed="random"/>
    <vehicle id="B_36" type="typeB" route="right" depart="1187" departLane="0" departSpeed="random"/>
    <vehicle id="A_39" type="typeA" route="right" depart="1213" departLane="1" departSpeed="random"/>
    <vehicle id="B_37" type="typeB" route="right" depart="1218" departLane="0" departSpeed="random"/>
    <vehicle id="A_40" type="typeA" route="right" depart="1258" departLane="1" departSpeed="random"/>
    <vehicle id="B_38" type="typeB" route="right" depart="1271" departLane="0" departSpeed="random"/>
    <vehicle id="B_39" type="typeB" route="right" depart="1281" departLane="0" departSpeed="random"/>
    <vehicle id="A_41" type="typeA" route="right" depart="1284" departLane="1" departSpeed="random"/>
    <vehicle id="B_40" type="typeB" route="right" depart="1293" departLane="0" departSpeed="random"/>
    <vehicle id="B_41" type="typeB" route="right" depart="1318" departLane="0" departSpeed="random"/>
    <vehicle id="B_42" type="typeB" route="right" depart="1343" departLane="0" departSpeed="random"/>
    <vehicle id="B_43" type="typeB" route="right" depart="1367" departLane="0" departSpeed="random"/>
    <vehicle id="A_42" type="typeA" route="right" depart="1374" departLane="1" departSpeed="random"/>
    <vehicle id="B_44" type="typeB" route="right" depart="1377" departLane="0" departSpeed="random"/>
    <vehicle id="B_45" type="typeB" route="right" depart="1408" departLane="0" departSpeed="random"/>
    <vehicle id="B_46" type="typeB" route="right" depart="1412" departLane="0" departSpeed="random"/>
    <vehicle id="A_43" type="typeA" route="right" depart="1418" departLane="1" departSpeed="random"/>
    <vehicle id="A_44" type="typeA" route="right" depart="1425" departLane="1" departSpeed="random"/>
    <vehicle id="B_47" type="typeB" route="right" depart="1454" departLane="0" departSpeed="random"/>
    <vehicle id="A_45" type="typeA" route="right" depart="1462" departLane="1" departSpeed="random"/>
    <vehicle id="A_46" type="typeA" route="right" depart="1466" departLane="1" departSpeed="random"/>
    <vehicle id="B_48" type="typeB" route="right" depart="1483" departLane="0" departSpeed="random"/>
    <vehicle id="A_47" type="typeA" route="right" depart="1495" departLane="1" departSpeed="random"/>
    <vehicle id="B_49" type="typeB" route="right" depart="1509" departLane="0" departSpeed="random"/>
    <vehicle id="B_50" type="typeB" route="right" depart="1521" departLane="0" departSpeed="random"/>
    <vehicle id="B_51" type="typeB" route="right" depart="1570" departLane="0" departSpeed="random"/>
    <vehicle id="A_48" type="typeA" route="right" depart="1585" departLane="1" departSpeed="random"/>
    <vehicle id="B_52" type="typeB" route="right" depart="1591" departLane="0" departSpeed="random"/>
    <vehicle id="A_49" type="typeA" route="right" depart="1602" departLane="1" departSpeed="random"/>
    <vehicle id="B_53" type="typeB" route="right" depart="1603" departLane="0" departSpeed="random"/>
    <vehicle id="B_54" type="typeB" route="right" depart="1605" departLane="0" departSpeed="random"/>
    <vehicle id="B_55" type="typeB" route="right" depart="1656" departLane="0" departSpeed="random"/>
    <vehicle id="B_56" type="typeB" route="right" depart="1664" departLane="0" departSpeed="random"/>
    <vehicle id="B_57" type="typeB" route="right" depart="1686" departLane="0" departSpeed="random"/>
    <vehicle id="A_50" type="typeA" route="right" depart="1703" departLane="1" departSpeed="random"/>
    <vehicle id="B_58" type="typeB" route="right" depart="1730" departLane="0" departSpeed="random"/>
    <vehicle id="B_59" type="typeB" route="right" depart="1758" departLane="0" departSpeed="random"/>
    <vehicle id="A_51" type="typeA" route="right" depart="1812" departLane="1" departSpeed="random"/>
    <vehicle id="A_52" type="typeA" route="right" depart="1818" departLane="1" departSpeed="random"/>
    <vehicle id="B_60" type="typeB" route="right" depart="1827" departLane="0" departSpeed="random"/>
    <vehicle id="A_53" type="typeA" route="right" depart="1856" departLane="1" departSpeed="random"/>
    <vehicle id="B_61" type="typeB" route="right" depart="1869" departLane="0" departSpeed="random"/>
    <vehicle id="A_54" type="typeA" route="right" depart="1883" departLane="1" departSpeed="random"/>
    <vehicle id="B_62" type="typeB" route="right" depart="1900" departLane="0" departSpeed="random"/>
    <vehicle id="A_55" type="typeA" route="right" depart="1922" departLane="1" departSpeed="random"/>
    <vehicle id="B_63" type="typeB" route="right" depart="1933" departLane="0" departSpeed="random"/>
    <vehicle id="B_64" type="typeB" route="right" depart="1934" departLane="0" departSpeed="random"/>
    <vehicle id="B_65" type="typeB" route="right" depart="1976" departLane="0" departSpeed="random"/>
    <vehicle id="A_56" type="typeA" route="right" depart="1983" departLane="1" departSpeed="random"/>
    <vehicle id="B_66" type="typeB" route="right" depart="2016" departLane="0" departSpeed="random"/>
    <vehicle id="B_67" type="typeB" route="right" depart="2035" departLane="0" departSpeed="random"/>
    <vehicle id="B_68" type="typeB" route="right" depart="2050" departLane="0" departSpeed="random"/>
    <vehicle id="A_57" type="typeA" route="right" depart="2071" departLane="1" departSpeed="random"/>
    <vehicle id="A_58" type="typeA" route="right" depart="2076" departLane="1" departSpeed="random"/>
    <vehicle id="A_59" type="typeA" route="right" depart="2104" departLane="1" departSpeed="random"/>
    <vehicle id="A_60" type="typeA" route="right" depart="2130" departLane="1" departSpeed="random"/>
    <vehicle id="B_69" type="typeB" route="right" depart="2149" departLane="0" departSpeed="random"/>
    <vehicle id="A_61" type="typeA" route="right" depart="2155" departLane="1" departSpeed="random"/>
    <vehicle id="A_62" type="typeA" route="right" depart="2162" departLane="1" departSpeed="random"/>
    <vehicle id="A_63" type="typeA" route="right" depart="2175" departLane="1" departSpeed="random"/>
    <vehicle id="B_70" type="typeB" route="right" depart="2177" departLane="0" departSpeed="random"/>
    <vehicle id="B_71" type="typeB" route="right" depart="2179" departLane="0" departSpeed="random"/>
    <vehicle id="B_72" type="typeB" route="right" depart="2181" departLane="0" departSpeed="random"/>
    <vehicle id="B_73" type="typeB" route="right" depart="2195" departLane="0" departSpeed="random"/>
    <vehicle id="B_74" type="typeB" route="right" depart="2225" departLane="0" departSpeed="random"/>
    <vehicle id="B_75" type="typeB" route="right" depart="2248" departLane="0" departSpeed="random"/>
    <vehicle id="B_76" type="typeB" route="right" depart="2250" departLane="0" departSpeed="random"/>
    <vehicle id="B_77" type="typeB" route="right" depart="2300" departLane="0" departSpeed="random"/>
    <vehicle id="A_64" type="typeA" route="right" depart="2321" departLane="1" departSpeed="random"/>
    <vehicle id="B_78" type="typeB" route="right" depart="2343" departLane="0" departSpeed="random"/>
    <vehicle id="A_65" type="typeA" route="right" depart="2353" departLane="1" departSpeed="random"/>
    <vehicle id="A_66" type="typeA" route="right" depart="2355" departLane="1" departSpeed="random"/>
    <vehicle id="A_67" type="typeA" route="right" depart="2360" departLane="1" departSpeed="random"/>
    <vehicle id="A_68" type="typeA" route="right" depart="2365" departLane="1" departSpeed="random"/>
    <vehicle id="A_69" type="typeA" route="right" depart="2368" departLane="1" departSpeed="random"/>
    <vehicle id="A_70" type="typeA" route="right" depart="2375" departLane="1" departSpeed="random"/>
    <vehicle id="B_79" type="typeB" route="right" depart="2383" departLane="0" departSpeed="random"/>
    <vehicle id="A_71" type="typeA" route="right" depart="2418" departLane="1" departSpeed="random"/>
    <vehicle id="A_72" type="typeA" route="right" depart="2419" departLane="1" departSpeed="random"/>
    <vehicle id="B_80" type="typeB" route="right" depart="2468" departLane="0" departSpeed="random"/>
    <vehicle id="B_81" type="typeB" route="right" depart="2504" departLane="0" departSpeed="random"/>
    <vehicle id="A_73" type="typeA" route="right" depart="2505" departLane="1" departSpeed="random"/>
    <vehicle id="A_74" type="typeA" route="right" depart="2510" departLane="1" departSpeed="random"/>
    <vehicle id="B_82" type="typeB" route="right" depart="2513" departLane="0" departSpeed="random"/>
    <vehicle id="A_75" type="typeA" route="right" depart="2516" departLane="1" departSpeed="random"/>
    <vehicle id="A_76" type="typeA" route="right" depart="2530" departLane="1" departSpeed="random"/>
    <vehicle id="B_83" type="typeB" route="right" depart="2535" departLane="0" departSpeed="random"/>
    <vehicle id="A_77" type="typeA" route="right" depart="2542" departLane="1" departSpeed="random"/>
    <vehicle id="A_78" type="typeA" route="right" depart="2551" departLane="1" departSpeed="random"/>
    <vehicle id="B_84" type="typeB" route="right" depart="2561" departLane="0" departSpeed="random"/>
    <vehicle id="A_79" type="typeA" route="right" depart="2588" departLane="1" departSpeed="random"/>
    <vehicle id="A_80" type="typeA" route="right" depart="2614" departLane="1" departSpeed="random"/>
    <vehicle id="B_85" type="typeB" route="right" depart="2622" departLane="0" departSpeed="random"/>
    <vehicle id="A_81" type="typeA" route="right" depart="2638" departLane="1" departSpeed="random"/>
    <vehicle id="B_86" type="typeB" route="right" depart="2677" departLane="0" departSpeed="random"/>
    <vehicle id="B_87" type="typeB" route="right" depart="2697" departLane="0" departSpeed="random"/>
    <vehicle id="A_82" type="typeA" route="right" depart="2712" departLane="1" departSpeed="random"/>
    <vehicle id="B_88" type="typeB" route="right" depart="2715" departLane="0" departSpeed="random"/>
    <vehicle id="A_83" type="typeA" route="right" depart="2750" departLane="1" departSpeed="random"/>
    <vehicle id="A_84" type="typeA" route="right" depart="2800" departLane="1" departSpeed="random"/>
    <vehicle id="A_85" type="typeA" route="right" depart="2801" departLane="1" departSpeed="random"/>
    <vehicle id="A_86" type="typeA" route="right" depart="2812" departLane="1" departSpeed="random"/>
    <vehicle id="B_89" type="typeB" route="right" depart="2857" departLane="0" departSpeed="random"/>
    <vehicle id="A_87" type="typeA" route="right" depart="2864" departLane="1" departSpeed="random"/>
    <vehicle id="A_88" type="typeA" route="right" depart="2870" departLane="1" departSpeed="random"/>
    <vehicle id="B_90" type="typeB" route="right" depart="2876" departLane="0" departSpeed="random"/>
    <vehicle id="B_91" type="typeB" route="right" depart="2939" departLane="0" departSpeed="random"/>
    <vehicle id="B_92" type="typeB" route="right" depart="2954" departLane="0" departSpeed="random"/>
    <vehicle id="A_89" type="typeA" route="right" depart="2983" departLane="1" departSpeed="random"/>
    <vehicle id="B_93" type="typeB" route="right" depart="2983" departLane="0" departSpeed="random"/>
    <vehicle id="B_94" type="typeB" route="right" depart="3010" departLane="0" departSpeed="random"/>
    <vehicle id="A_90" type="typeA" route="right" depart="3026" departLane="1" departSpeed="random"/>
    <vehicle id="A_91" type="typeA" route="right" depart="3047" departLane="1" departSpeed="random"/>
    <vehicle id="B_95" type="typeB" route="right" depart="3099" departLane="0" departSpeed="random"/>
    <vehicle id="A_92" type="typeA" route="right" depart="3103" departLane="1" departSpeed="random"/>
    <vehicle id="A_93" type="typeA" route="right" depart="3115" departLane="1" departSpeed="random"/>
    <vehicle id="B_96" type="typeB" route="right" depart="3117" departLane="0" departSpeed="random"/>
    <vehicle id="A_94" type="typeA" route="right" depart="3125" departLane="1" departSpeed="random"/>
    <vehicle id="A_95" type="typeA" route="right" depart="3152" departLane="1" departSpeed="random"/>
    <vehicle id="A_96" type="typeA" route="right" depart="3177" departLane="1" departSpeed="random"/>
    <vehicle id="B_97" type="typeB" route="right" depart="3201" departLane="0" departSpeed="random"/>
    <vehicle id="B_98" type="typeB" route="right" depart="3226" departLane="0" departSpeed="random"/>
    <vehicle id="B_99" type="typeB" route="right" depart="3264" departLane="0" departSpeed="random"/>
    <vehicle id="A_97" type="typeA" route="right" depart="3310" departLane="1" departSpeed="random"/>
    <vehicle id="A_98" type="typeA" route="right" depart="3317" departLane="1" departSpeed="random"/>
    <vehicle id="B_100" type="typeB" route="right" depart="3367" departLane="0" departSpeed="random"/>
    <vehicle id="A_99" type="typeA" route="right" depart="3376" departLane="1" departSpeed="random"/>
    <vehicle id="A_100" type="typeA" route="right" depart="3377" departLane="1" departSpeed="random"/>
    <vehicle id="B_101" type="typeB" route="right" depart="3383" departLane="0" departSpeed="random"/>
    <vehicle id="B_102" type="typeB" route="right" depart="3389" departLane="0" departSpeed="random"/>
    <vehicle id="B_103" type="typeB" route="right" depart="3403" departLane="0" departSpeed="random"/>
    <vehicle id="B_104" type="typeB" route="right" depart="3420" departLane="0" departSpeed="random"/>
    <vehicle id="B_105" type="typeB" route="right" depart="3423" departLane="0" departSpeed="random"/>
    <vehicle id="A_101" type="typeA" route="right" depart="3456" departLane="1" departSpeed="random"/>
    <vehicle id="A_102" type="typeA" route="right" depart="3457" departLane="1" departSpeed="random"/>
    <vehicle id="A_103" type="typeA" route="right" depart="3469" departLane="1" departSpeed="random"/>
    <vehicle id="A_104" type="typeA" route="right" depart="3483" departLane="1" departSpeed="random"/>
    <vehicle id="A_105" type="typeA" route="right" depart="3552" departLane="1" departSpeed="random"/>
    <vehicle id="B_106" type="typeB" route="right" depart="3557" departLane="0" departSpeed="random"/>
    <vehicle id="A_106" type="typeA" route="right" depart="3566" departLane="1" departSpeed="random"/>
    <vehicle id="A_107" type="typeA" route="right" depart="3587" departLane="1" departSpeed="random"/>
    <vehicle id="B_107" type="typeB" route="right" depart="3589" departLane="0" departSpeed="random"/>
</routes>
